src/tests/data/grids/ucte/couplerToXnodeExample.uct
##C 2007.05.01
Generated by powsybl, 2019.09.23 17:47
Case date: 2019.09.24 19:30
##N
##ZFR
FFFFFF11              0 0        3.96708 0.00000 0.00000 0.00000
##ZXX
XXXXXX11              1 0        3.96708 0.00000 0.00000 0.00000
XXXXXX12              1 0        3.96708 0.00000 0.00000 0.00000
##L
FFFFFF11 XXXXXX11 1 9 0.0000 0.2000 0.000000   5051
FFFFFF11 XXXXXX12 1 2 0.0000 0.0000 0.000000   5051
##T
##R
